Version 4
SHEET 1 2564 1028
WIRE -80 32 -144 32
WIRE 32 32 -80 32
WIRE 320 32 208 32
WIRE 576 32 320 32
WIRE 656 32 576 32
WIRE 736 32 656 32
WIRE 976 32 736 32
WIRE 1264 32 976 32
WIRE 576 80 576 32
WIRE 736 80 736 32
WIRE 976 80 976 32
WIRE -144 112 -144 32
WIRE -80 112 -80 32
WIRE 320 112 320 32
WIRE 1200 128 1168 128
WIRE 1232 128 1200 128
WIRE 576 192 576 144
WIRE 576 192 496 192
WIRE 736 192 736 144
WIRE 864 192 736 192
WIRE 1168 192 1168 128
WIRE 1264 208 1264 32
WIRE 1264 208 1184 208
WIRE 576 224 576 192
WIRE 736 224 736 192
WIRE 976 224 976 160
WIRE 1120 224 976 224
WIRE 656 240 656 32
WIRE 704 240 656 240
WIRE 1264 240 1184 240
WIRE 496 256 496 192
WIRE 864 256 864 192
WIRE 976 272 976 224
WIRE -144 320 -144 192
WIRE -80 320 -80 176
WIRE 320 320 320 176
WIRE 1168 320 1168 256
WIRE 1200 320 1168 320
WIRE 1232 320 1200 320
WIRE 576 336 576 304
WIRE 736 336 736 304
WIRE 976 400 976 352
WIRE 1264 400 1264 240
WIRE 1264 400 976 400
WIRE 704 448 704 240
WIRE 736 448 704 448
WIRE 736 496 736 448
WIRE 496 512 496 432
WIRE 560 512 496 512
WIRE 624 512 560 512
WIRE 864 512 864 432
WIRE 944 512 864 512
WIRE 1008 512 944 512
WIRE 1264 624 1264 400
WIRE -32 672 -80 672
WIRE 0 672 -32 672
WIRE 192 672 144 672
WIRE 224 672 192 672
WIRE -80 736 -80 672
WIRE 144 736 144 672
WIRE 736 768 736 672
WIRE -80 864 -80 816
WIRE 144 864 144 816
WIRE 1264 864 1264 800
FLAG -144 320 0
FLAG -80 320 0
FLAG 320 320 0
FLAG 576 336 0
FLAG 736 336 0
FLAG -80 32 V1
FLAG 320 32 V2
FLAG 560 512 Vee
FLAG 944 512 Vcc
FLAG 1200 320 Vcc
FLAG 1200 128 Vee
FLAG -80 864 0
FLAG 144 864 0
FLAG -32 672 Vee
FLAG 192 672 Vcc
FLAG 736 768 0
FLAG 1264 864 0
SYMBOL ind -128 208 R180
WINDOW 0 36 80 Left 2
WINDOW 3 36 40 Left 2
SYMATTR InstName L1
SYMATTR Value 8.5mH
SYMBOL cap 304 112 R0
SYMATTR InstName C1
SYMATTR Value 4.6nF
SYMBOL cap -96 112 R0
SYMATTR InstName C2
SYMATTR Value 47nF
SYMBOL diode 720 80 R0
SYMATTR InstName D1
SYMATTR Value 1N4148
SYMBOL diode 592 144 R180
WINDOW 0 24 64 Left 2
WINDOW 3 24 0 Left 2
SYMATTR InstName D2
SYMATTR Value 1N4148
SYMBOL res 560 208 R0
SYMATTR InstName R4
SYMATTR Value 3.3k
SYMBOL res 720 208 R0
SYMATTR InstName R5
SYMATTR Value 3.3k
SYMBOL res 960 64 R0
SYMATTR InstName R1
SYMATTR Value 290
SYMBOL res 960 256 R0
SYMATTR InstName R2
SYMATTR Value 290
SYMBOL OpAmps\\LT1351 1152 224 R180
SYMATTR InstName U1
SYMBOL voltage 144 720 R0
WINDOW 123 0 0 Left 0
WINDOW 39 0 0 Left 0
SYMATTR InstName V1
SYMATTR Value 9
SYMBOL voltage -80 832 R180
WINDOW 123 0 0 Left 0
WINDOW 39 0 0 Left 0
SYMATTR InstName V2
SYMATTR Value 9
SYMBOL AutoGenerated\\memristor 736 576 R90
SYMATTR InstName U2
SYMBOL AutoGenerated\\memristor 112 32 R0
SYMATTR InstName U3
SYMATTR SpiceLine Ron=0.8K Roff=1.6K Rinit=1.6K D=70N uv=10F p=1
SYMBOL AutoGenerated\\memristor 1264 704 R90
SYMATTR InstName U4
SYMATTR SpiceLine Ron=.6K Roff=1.2K Rinit=1.2K D=10N uv=10F p=1
SYMBOL AutoGenerated\\memristor 864 336 R90
SYMATTR InstName U5
SYMATTR SpiceLine Ron=23K Roff=47K Rinit=47K D=10N uv=10F p=1
SYMBOL AutoGenerated\\memristor 496 336 R90
SYMATTR InstName U6
SYMATTR SpiceLine Ron=23K Roff=47K Rinit=47K D=10N uv=10F p=1
TEXT 32 568 Left 2 !.tran 0.001ms 100ms 50ms
